/*--------------------------------*- C++ -*----------------------------------*\
  =========                 |
  \\      /  F ield         | OpenFOAM: The Open Source CFD Toolbox
   \\    /   O peration     | Website:  https://openfoam.org
    \\  /    A nd           | Version:  12
     \\/     M anipulation  |
\*---------------------------------------------------------------------------*/
FoamFile
{
    format      ascii;
    class       dictionary;
    location    "constant";
    object      momentumTransport;
}
// * * * * * * * * * * * * * * * * * * * * * * * * * * * * * * * * * * * * * //

simulationType RAS;

/*
simulationType laminar;
simulationType RAS;
simulationType LES;
*/

RAS
{
    model           kOmegaSST; // Name of the RAS turbulence model
    turbulence      on; // Switch to turn turbulence modeling on/of
    printCoeffs     on; // Optional: prints model coefficients to terminal

    /*
    // Optional: Override default coefficients for kEpsilon model
    kEpsilonCoeffs
    {
        Cmu         0.09;
        C1          1.44;
        C2          1.92;
        sigmaK      1.0;
        sigmaEps    1.3;
    }
    */

    /*
    RANS models:
    HAY QUE AMPLIAR ESTA LISTA CON LOS MODELOS DE TURBULENCIA QUE SE PUEDEN USAR
    Linear Eddy Viscosity Models (EVMs)
    One-equation models:
    SpalartAllmaras

    Two-equation models:
    kEpsilon
    LaunderSharmaKE
    LamBremhorstKE
    realizableKE
    RNGkEpsilon

    kOmega
    kOmegaSST
    kOmegaSSTSAS
    
    v2f

    kkLOmega

    qZeta

    Nonlinear Eddy Viscosity Models
    ShihFu (often referred to as ShihQuadraticKE or LienCubicKE)

    Reynolds Stress Models (RSMs)
    LRR (Launder-Reece-Rodi)
    SSG (Speziale-Sarkar-Gatski):
    */
}

LES
{

    model               Smagorinsky; // Name of the LES turbulence model
    turbulence          on;          // Switch to turn turbulence modeling on/off
    delta               cubeRootVol; // Method for calculating the filter width (delta)
    printCoeffs         on;          // Optional: prints model coefficients to terminal
    
    /*
    // Optional: Override default coefficients for Smagorinsky model
    SmagorinskyCoeffs
    {
        Cs          0.1;
    }

    // Optional: Coefficients for the delta model
    cubeRootVolCoeffs
    {
        // No specific coefficients typically needed for cubeRootVol
    }
    */

    /*
    HAY QUE AMPLIAR ESTA LISTA CON LOS MODELOS DE TURBULENCIA QUE SE PUEDEN USAR
    LES models:
    Smagorinsky
    dynamicSmagorinsky
    oneEqEddy
    dynamicOneEqEddy
    kOmegaSST (LES variant)

    delta models:
    cubeRootVol
    filtered
    lagrangian
    min
    max
    vanDriest
    */
}

// ************************************************************************* //