/*--------------------------------*- C++ -*----------------------------------*\
  =========                 |				
  \\      /  F ield         | OpenFOAM: The Open Source CFD Toolbox
   \\    /   O peration     | Website:  https://openfoam.org
    \\  /    A nd           | Version:  10                                  	
     \\/     M anipulation  |
\*---------------------------------------------------------------------------*/
FoamFile
{
    format      ascii;
    class       dictionary;
    object      fvSolution;
}
// * * * * * * * * * * * * * * * * * * * * * * * * * * * * * * * * * * * * * //

solvers
{

    p
    {
/*
	type 		coupled;
        solver          PBiCICG;	//SmoothSolver PBiCICG diagonal PBiCCCG
        preconditioner  DILU;		//none diagonal DILU
        //smoother        GaussSeidel;
        tolerance       1e-06;
        relTol          0.01;
*/


//Fastest
	solver          PCG;
        preconditioner  FDIC; //DIC FDIC GAMG diagonal none
        tolerance       1e-06;
        relTol          0.01;


/*
	solver          PBiCGStab;
        preconditioner  FDIC;
        tolerance       1e-06;
        relTol          0.01;
*/

/*
//Slowest
        solver          smoothSolver;
        smoother  	FDIC;	//DIC DICGaussSeidel FDIC GaussSeidel nonBlockingGaussSeidel symGaussSeidel
        //smoother  	symGaussSeidel;	//DIC DICGaussSeidel FDIC GaussSeidel nonBlockingGaussSeidel symGaussSeidel
        tolerance       1e-06;
        relTol          0.01;
*/

/*
        solver          PCG;
        preconditioner
        {
            preconditioner  GAMG;
            tolerance       1e-05;
            relTol          0;
            smoother        GaussSeidel;
            nPreSweeps      0;
            nPostSweeps     2;
            nFinestSweeps   2;
            cacheAgglomeration on;
            nCellsInCoarsestLevel 10;
            agglomerator    faceAreaPair;
            mergeLevels     1;
        }
        tolerance       1e-06;
        relTol          0.01;
*/

/*
        solver           GAMG;
        tolerance        1e-6;
        relTol           0.01;
        //smoother         GaussSeidel;
        smoother         symGaussSeidel;
        //nPreSweeps       0;
        //nPostSweeps      2;
        //cacheAgglomeration on;
        //agglomerator     faceAreaPair;
        //nCellsInCoarsestLevel 100;
        //mergeLevels      1;
*/

	minIter 2;
    }

    pFinal
    {
        $p;
        relTol          0;
    }

/*
    "U.*"
    {
        solver          smoothSolver;
        smoother        symGaussSeidel;
        tolerance       1e-08;
        relTol          0;
	minIter 	1;
    }
*/

    "U.*"
    {
	type 		segregated;
        solver          PBiCGStab;	//GAMG PBiCG PBiCGStab smoothSolver
        preconditioner  DILU;		//DILU GAMG diagonal none
        tolerance       1e-08;
        relTol          0;
	minIter		1;
    }

/*
    "U.*"
    {
	type 		coupled;
        solver          PBiCCCG;	//SmoothSolver PBiCICG diagonal PBiCCCG
        preconditioner  DILU;		//none diagonal DILU
        //smoother        GaussSeidel;
        tolerance       (1e-08 1e-08 1e-08);
        relTol          (0 0 0);
	minIter		1;
    }
*/

}

PIMPLE
{
    momentumPredictor yes;

    nOuterCorrectors 1;
    nCorrectors     2;
    nNonOrthogonalCorrectors 1;

}

relaxationFactors
{
    fields
    {
        ".*"   0.9;  // ensure diagonal equality
    }
    equations
    {
        ".*"   0.9;  // ensure diagonal equality
    }
}

// ************************************************************************* //
