/*--------------------------------*- C++ -*----------------------------------*\
  =========                 |
  \\      /  F ield         | OpenFOAM: The Open Source CFD Toolbox
   \\    /   O peration     | Website:  https://openfoam.org
    \\  /    A nd           | Version:  12
     \\/     M anipulation  |
\*---------------------------------------------------------------------------*/
FoamFile
{
    format      ascii;
    class       dictionary;
    location    "system";
    object      controlDict;
}
// * * * * * * * * * * * * * * * * * * * * * * * * * * * * * * * * * * * * * //

application     foamRun;
solver          incompressibleFluid;
startFrom       startTime;
startTime       0;
stopAt          endTime;
endTime         2000; 
deltaT          1; // such the first CFL is 0.1 - 0.3
writeControl    adjustableRunTime;
writeInterval   10;
purgeWrite      0;
writeFormat     binary;
writePrecision  10;
writeCompression no;
timeFormat      general;
timePrecision   6;
runTimeModifiable true;
adjustableRunTime yes;
maxCo           1.0; // Maximum Courant number
// maxAlphaCo      1.0; // Maximum alpha Courant number
maxDeltaT       1; // Maximum time step size

// ************************************************************************* //