/*--------------------------------*- C++ -*----------------------------------*\
  =========                 |
  \\      /  F ield         | OpenFOAM: The Open Source CFD Toolbox
   \\    /   O peration     | Website:  https://openfoam.org
    \\  /    A nd           | Version:  12
     \\/     M anipulation  |
\*---------------------------------------------------------------------------*/
FoamFile
{
    format      ascii;
    class       dictionary;
    location    "system";
    object      fvSchemes;
}
// * * * * * * * * * * * * * * * * * * * * * * * * * * * * * * * * * * * * * //

ddtSchemes
{
    Most Stable:        Euler;
                        CrankNicolson 0.9; // 0 = Euler, 1 = Pure CrankNicolson
    Most Accurate:      backward;
    Only steady-state:  steadyState;
}

gradSchemes
{
    Most Stable:        Gauss linear;
    Most Accurate:      leastSquares;
    // Add limiter for stability
    default             cellMDLimited Gauss linear 1.0;
}

divSchemes 
{
    default         none; // Best practice
    Most Stable:    Gauss upwind;
    // Note, the order isn't exact here
    Average:        Gauss limitedLinear 1.0;
                    Gauss linearUpwind <gradScheme>; // Must specify gradScheme
                    Gauss vanLeer;
                    Gauss QUICK;
    Most Accurate:  Gauss linear
    
    Steady state:   bounded Gauss limitedLinear 1.0;

    // Rule of thumb
    default         none;
    div(phi,U)      Gauss limitedLinearV 1.0;
    div(phi,k)      Gauss limitedLinear 1.0;
    div(phi,epsilon)                Gauss limitedLinear 1.0;
    div((nuEff*dev2(T(grad(U)))))   Gauss linear; // Viscosity term
}

laplacianSchemes
{
    Pattern:        Gauss <interoplation> <snGrad>;

    default         Gauss linear <same as snGradSchemes>;
}

interpolationSchemes
{
    default         linear;
}

snGradSchemes
{
    Max non-ortho < 0.5 deg:    orthogonal;
    Max non-ortho < 5   deg:    uncorrected;
    Max non-ortho < 70  deg:    corrected;
    Max non-ortho < 80  deg:    limited corrected 0.5;
    Max non-ortho > 80  deg:    // Make a better mesh.
}