/*--------------------------------*- C++ -*----------------------------------*\
  =========                 |
  \\      /  F ield         | OpenFOAM: The Open Source CFD Toolbox
   \\    /   O peration     | Website:  https://openfoam.org
    \\  /    A nd           | Version:  12
     \\/     M anipulation  |
\*---------------------------------------------------------------------------*/
FoamFile
{
    format      ascii;
    class       dictionary;
    location    "system";
    object      fvSolution;
}
// * * * * * * * * * * * * * * * * * * * * * * * * * * * * * * * * * * * * * //

solvers
{
    p
    {
        solver          GAMG; // PCG
        // preconditioner  DIC;
        tolerance       1.0e-06; // 1.0e-04
        relTol          0.01; // 0.05
        nPreSweeps      0;
        nPostSweeps     2;
        cacheAgglomeration on;
        agglomerator    faceAreaPair;
        nCellsInCoarsestLevel 100;
        mergeLevels     1;
        minIter         3;
        maxIter         100;
    }

    /*
    p
    {
        solver          PCG;
        preconditioner  DIC;
        tolerance       1.0e-06; // 1.0e-04
        relTol          0.01; // 0.05
        minIter         3;
        maxIter         100;
    }
    */

    pFinal
    {
        $p;
        tolerance       1.0e-06;
        relTol          0.0;
    }

    "(U|k|epsilon).*"
    {
        solver PBiCGStab; // smoothSolver;
        preconditioner DILU; // GaussSeidel;
        tolerance       1e-08;
        relTol          0.0; // 0.01
        minIter         3;
        maxIter         100;
    }
}

SIMPLE
{
    nNonOrthogonalCorrectors 2;
    consistent      yes;
    /* consistent      yes; // SIMPLEC */

    residualControl
    {
        p               1e-4;
        U               1e-4;
        k               1e-4;
        epsilon         1e-4;
    }
}

PIMPLE
{
    momentumPredictor yes; 
    nCorrectors     3;
    nNonOrthogonalCorrectors 2;
    // nOuterCorrectors 1; // PISO
    nOuterCorrectors 5; // 2 - 5 - 20

    outerCorrectorResidualControl
    {
        "(U|k|epsilon)"
        {
            relTol         1e-2;
            tolerance      1e-3;
        }
        p               1e-4;
    }
}

relaxationFactors // SIMPLE
{
    fields
    {
        p               0.3;
    }
    
    equations
    {
        U               0.7;
        k               0.7;
        epsilon         0.7;
    }
}

relaxationFactors // SIMPLEC
{
    fields
    {
        p               0.7; // 1.0
    }
    
    equations
    {
        p               0.7; // 1.0
        U               0.7; // 0.5 - 0.7 - 0.9
        k               0.7; // 0.5 - 0.7 - 0.9
        epsilon         0.7; // 0.5 - 0.7 - 0.9
    }
}

relaxationFactors // PIMPLE v1
{
    fields
    {
        ".*"               1.0;
    }
    
    equations
    {
        ".*"               1.0;
    }
}

relaxationFactors // PIMPLE v2
{
    fields
    {
        "p.*"               0.3;
    }
    
    equations
    {
        "U.*"               0.7;
        "k.*"               0.7;
        "epsilon.*"         0.7;
    }
}

relaxationFactors // PIMPLE v3
{
    fields
    {
        "p.*"               0.9;
    }
    
    equations
    {
        "p.*"               0.9;
        "U.*"               0.9;
        "k.*"               0.9;
        "epsilon.*"         0.9;
    }
}

// ************************************************************************* //
