/*--------------------------------*- C++ -*----------------------------------*\
  =========                 |
  \\      /  F ield         | OpenFOAM: The Open Source CFD Toolbox
   \\    /   O peration     | Website:  https://openfoam.org
    \\  /    A nd           | Version:  12
     \\/     M anipulation  |
\*---------------------------------------------------------------------------*/
FoamFile
{
    format      ascii;
    class       dictionary;
    object      meshQualityDict;
}
// * * * * * * * * * * * * * * * * * * * * * * * * * * * * * * * * * * * * * //

// Maximum non-orthogonality allowed. Set to 180 to disable.
// This is the maximum allowable non-orthogonality angle in degrees between the vector 
// connecting the centers of two adjacent cells and the normal vector of their shared face.
maxNonOrtho 70;

// Maximum allowable skewness for boundary faces. Set to <0 to disable.
maxBoundarySkewness 20;

// Maximum allowable skewness for internal faces.
maxInternalSkewness 4;

// Max concaveness allowed. Is angle (in degrees) below which concavity
// is allowed. 0 is straight face, <0 would be convex face.
// Set to 180 to disable.
maxConcave 80;

// Minimum allowed cell volume.
// Set to a fraction of the smallest cell volume expected.
// Set to very negative number (e.g. -1e30) to disable.
minVol 1e-13;

// Minimum quality of the tet formed by the face-centre
// and variable base point minimum decomposition triangles and
// the cell centre. Set to very negative number (e.g. -1e30) to
// disable.
//     <0 = inside out tet,
//      0 = flat tet
//      1 = regular tet
// minTetQuality 1e-15;
minTetQuality -1e+30;

// Minimum allowed cell face area.
minArea -1;

// Minimum face twist. Set to <-1 to disable. dot product of face normal
// and face centre triangles normal
// It measures how much a face deviates from being perfectly flat.
minTwist 0.02;

// Minimum normalised cell determinant. This is the determinant of all
// the areas of internal faces. It is a measure of how much of the
// outside area of the cell is to other cells. The idea is that if all
// outside faces of the cell are 'floating' (zeroGradient) the
// 'fixedness' of the cell is determined by the area of the internal faces.
// 1 = hex, <= 0 = folded or flattened illegal cell
minDeterminant 0.001;

// Relative position of face in relation to cell centres (0.5 for orthogonal
// mesh) (0 -> 0.5)
// It relates to the relative position of the face center with respect to the 
// line connecting the neighboring cell centers. A small face weight can indicate high non-orthogonality or skewness.
minFaceWeight 0.05;

// Volume ratio of neighbouring cells (0 -> 1)
// This metric compares the volume of a cell to the volume of its neighboring cells.
minVolRatio 0.01;

// It measures the planarity of the triangle.
minTriangleTwist -1;

minFlatness 0.5;

// Cell volume collapse occurs when one or more dimensions of a 
// cell become very small, leading to a near-zero or zero volume
minVolCollapseRatio 0.1;