/*--------------------------------*- C++ -*----------------------------------*\
  =========                 |
  \\      /  F ield         | OpenFOAM: The Open Source CFD Toolbox
   \\    /   O peration     | Website:  https://openfoam.org
    \\  /    A nd           | Version:  12
     \\/     M anipulation  |
\*---------------------------------------------------------------------------*/
FoamFile
{
    format      binary;
    class       polyBoundaryMesh;
    location    "constant/polyMesh";
    object      boundary;
}
// * * * * * * * * * * * * * * * * * * * * * * * * * * * * * * * * * * * * * //

6
(
    inlet
    {
        type            patch;
        nFaces          20;
        startFace       34266;
    }
    outlet
    {
        type            patch;
        nFaces          80;
        startFace       34286;
    }
    topWall
    {
        type            wall;
        inGroups        List<word> 1(wall);
        nFaces          234;
        startFace       34366;
    }
    stepWall
    {
        type            wall;
        inGroups        List<word> 1(wall);
        nFaces          64;
        startFace       34600;
    }
    baseWall
    {
        type            wall;
        inGroups        List<word> 1(wall);
        nFaces          210;
        startFace       34664;
    }
    frontAndBack
    {
        type            empty;
        inGroups        List<word> 1(empty);
        nFaces          34560;
        startFace       34874;
    }
)

// ************************************************************************* //
