/*--------------------------------*- C++ -*----------------------------------*\
  =========                 |
  \\      /  F ield         | OpenFOAM: The Open Source CFD Toolbox
   \\    /   O peration     | Website:  https://openfoam.org
    \\  /    A nd           | Version:  12
     \\/     M anipulation  |
\*---------------------------------------------------------------------------*/
FoamFile
{
    format      binary;
    class       polyBoundaryMesh;
    location    "2/polyMesh";
    object      boundary;
}
// * * * * * * * * * * * * * * * * * * * * * * * * * * * * * * * * * * * * * //

7
(
    minX
    {
        type            patch;
        nFaces          400;
        startFace       311645;
    }
    maxX
    {
        type            patch;
        nFaces          400;
        startFace       312045;
    }
    minY
    {
        type            patch;
        nFaces          400;
        startFace       312445;
    }
    maxY
    {
        type            patch;
        nFaces          400;
        startFace       312845;
    }
    minZ
    {
        type            patch;
        nFaces          400;
        startFace       313245;
    }
    maxZ
    {
        type            patch;
        nFaces          400;
        startFace       313645;
    }
    wolf_wall
    {
        type            wall;
        nFaces          20374;
        startFace       314045;
    }
)

// ************************************************************************* //
