/*--------------------------------*- C++ -*----------------------------------*\
  =========                 |
  \\      /  F ield         | OpenFOAM: The Open Source CFD Toolbox
   \\    /   O peration     | Website:  https://openfoam.org
    \\  /    A nd           | Version:  12
     \\/     M anipulation  |
\*---------------------------------------------------------------------------*/
FoamFile
{
    format      ascii;
    class       volScalarField;
    object      p;
}
// * * * * * * * * * * * * * * * * * * * * * * * * * * * * * * * * * * * * * //

dimensions      [0 2 -2 0 0 0 0];

internalField   uniform 0.0;

boundaryField
{
    topWall   
    {
        type            zeroGradient; 
    }

    stepWall   
    {
        type            zeroGradient;
    }

    baseWall      
    {
        type            zeroGradient;
    }

    inlet      
    {
        type            zeroGradient;
    }

    outlet      
    {
        type            fixedValue;
        value           uniform 0.0;
    }

    frontAndBack    
    {
        type            empty;
    }
}


// ************************************************************************* //
