/*--------------------------------*- C++ -*----------------------------------*\
  =========                 |
  \\      /  F ield         | OpenFOAM: The Open Source CFD Toolbox
   \\    /   O peration     | Website:  https://openfoam.org
    \\  /    A nd           | Version:  12
     \\/     M anipulation  |
\*---------------------------------------------------------------------------*/
FoamFile
{
    format      ascii;
    class       dictionary;
    location    "system";
    object      fvSchemes;
}
// * * * * * * * * * * * * * * * * * * * * * * * * * * * * * * * * * * * * * //

ddtSchemes
{
    default         CrankNicolson 0.9;
}

gradSchemes
{
    default             cellLimited Gauss linear 1.0;
    grad(p)             Gauss linear;
}

divSchemes
{
    default         none;
    div(phi,U)      Gauss limitedLinear 1.0; // Gauss linearUpwindV grad(U);
    div(phi,K)      Gauss linear; // Gauss limitedLinear 1.0;
    div(phi,h)      Gauss linear; // Gauss limitedLinear 1.0;
    div(((rho*nuEff)*dev2(T(grad(U))))) Gauss linear;
}

laplacianSchemes
{
    default         Gauss linear limited 1.0;
}

interpolationSchemes
{
    default         linear;
}

snGradSchemes
{
    default         limited 1.0;
}

// ************************************************************************* //
